
---------- Begin Simulation Statistics ----------
sim_seconds                                  0.005208                       # Number of seconds simulated
sim_ticks                                  5207502500                       # Number of ticks simulated
final_tick                                 5207502500                       # Number of ticks from beginning of simulation (restored from checkpoints and never reset)
sim_freq                                 1000000000000                       # Frequency of simulated ticks
host_inst_rate                                 536355                       # Simulator instruction rate (inst/s)
host_op_rate                                   536314                       # Simulator op (including micro ops) rate (op/s)
host_tick_rate                            25790283873                       # Simulator tick rate (ticks/s)
host_mem_usage                                 742336                       # Number of bytes of host memory used
host_seconds                                     0.20                       # Real time elapsed on the host
sim_insts                                      108283                       # Number of instructions simulated
sim_ops                                        108283                       # Number of ops (including micro ops) simulated
system.voltage_domain.voltage                       1                       # Voltage in Volts
system.clk_domain.clock                          1000                       # Clock period in ticks
system.mem_ctrls.bytes_read::cpu.inst          433180                       # Number of bytes read from this memory
system.mem_ctrls.bytes_read::cpu.data          179832                       # Number of bytes read from this memory
system.mem_ctrls.bytes_read::total             613012                       # Number of bytes read from this memory
system.mem_ctrls.bytes_inst_read::cpu.inst       433180                       # Number of instructions bytes read from this memory
system.mem_ctrls.bytes_inst_read::total        433180                       # Number of instructions bytes read from this memory
system.mem_ctrls.bytes_written::cpu.data       119280                       # Number of bytes written to this memory
system.mem_ctrls.bytes_written::total          119280                       # Number of bytes written to this memory
system.mem_ctrls.num_reads::cpu.inst           108295                       # Number of read requests responded to by this memory
system.mem_ctrls.num_reads::cpu.data            24921                       # Number of read requests responded to by this memory
system.mem_ctrls.num_reads::total              133216                       # Number of read requests responded to by this memory
system.mem_ctrls.num_writes::cpu.data           15228                       # Number of write requests responded to by this memory
system.mem_ctrls.num_writes::total              15228                       # Number of write requests responded to by this memory
system.mem_ctrls.bw_read::cpu.inst           83183829                       # Total read bandwidth from this memory (bytes/s)
system.mem_ctrls.bw_read::cpu.data           34533253                       # Total read bandwidth from this memory (bytes/s)
system.mem_ctrls.bw_read::total             117717082                       # Total read bandwidth from this memory (bytes/s)
system.mem_ctrls.bw_inst_read::cpu.inst      83183829                       # Instruction read bandwidth from this memory (bytes/s)
system.mem_ctrls.bw_inst_read::total         83183829                       # Instruction read bandwidth from this memory (bytes/s)
system.mem_ctrls.bw_write::cpu.data          22905414                       # Write bandwidth from this memory (bytes/s)
system.mem_ctrls.bw_write::total             22905414                       # Write bandwidth from this memory (bytes/s)
system.mem_ctrls.bw_total::cpu.inst          83183829                       # Total bandwidth to/from this memory (bytes/s)
system.mem_ctrls.bw_total::cpu.data          57438667                       # Total bandwidth to/from this memory (bytes/s)
system.mem_ctrls.bw_total::total            140622496                       # Total bandwidth to/from this memory (bytes/s)
system.mem_ctrls.readReqs                      133217                       # Number of read requests accepted
system.mem_ctrls.writeReqs                      15228                       # Number of write requests accepted
system.mem_ctrls.readBursts                    133217                       # Number of DRAM read bursts, including those serviced by the write queue
system.mem_ctrls.writeBursts                    15228                       # Number of DRAM write bursts, including those merged in the write queue
system.mem_ctrls.bytesReadDRAM                7478144                       # Total number of bytes read from DRAM
system.mem_ctrls.bytesReadWrQ                 1047744                       # Total number of bytes read from write queue
system.mem_ctrls.bytesWritten                   18432                       # Total number of bytes written to DRAM
system.mem_ctrls.bytesReadSys                  613016                       # Total read bytes from the system interface side
system.mem_ctrls.bytesWrittenSys               119280                       # Total written bytes from the system interface side
system.mem_ctrls.servicedByWrQ                  16371                       # Number of DRAM read bursts serviced by the write queue
system.mem_ctrls.mergedWrBursts                 14912                       # Number of DRAM write bursts merged with an existing one
system.mem_ctrls.neitherReadNorWriteReqs            0                       # Number of requests that are neither read nor write
system.mem_ctrls.perBankRdBursts::0             14147                       # Per bank write bursts
system.mem_ctrls.perBankRdBursts::1               218                       # Per bank write bursts
system.mem_ctrls.perBankRdBursts::2              3073                       # Per bank write bursts
system.mem_ctrls.perBankRdBursts::3              2212                       # Per bank write bursts
system.mem_ctrls.perBankRdBursts::4              3303                       # Per bank write bursts
system.mem_ctrls.perBankRdBursts::5               556                       # Per bank write bursts
system.mem_ctrls.perBankRdBursts::6             34177                       # Per bank write bursts
system.mem_ctrls.perBankRdBursts::7              3800                       # Per bank write bursts
system.mem_ctrls.perBankRdBursts::8              2400                       # Per bank write bursts
system.mem_ctrls.perBankRdBursts::9               213                       # Per bank write bursts
system.mem_ctrls.perBankRdBursts::10                0                       # Per bank write bursts
system.mem_ctrls.perBankRdBursts::11             8002                       # Per bank write bursts
system.mem_ctrls.perBankRdBursts::12               14                       # Per bank write bursts
system.mem_ctrls.perBankRdBursts::13            10376                       # Per bank write bursts
system.mem_ctrls.perBankRdBursts::14            31258                       # Per bank write bursts
system.mem_ctrls.perBankRdBursts::15             3097                       # Per bank write bursts
system.mem_ctrls.perBankWrBursts::0                 0                       # Per bank write bursts
system.mem_ctrls.perBankWrBursts::1                 0                       # Per bank write bursts
system.mem_ctrls.perBankWrBursts::2                 0                       # Per bank write bursts
system.mem_ctrls.perBankWrBursts::3               193                       # Per bank write bursts
system.mem_ctrls.perBankWrBursts::4                 0                       # Per bank write bursts
system.mem_ctrls.perBankWrBursts::5                 0                       # Per bank write bursts
system.mem_ctrls.perBankWrBursts::6                 0                       # Per bank write bursts
system.mem_ctrls.perBankWrBursts::7                 0                       # Per bank write bursts
system.mem_ctrls.perBankWrBursts::8                 0                       # Per bank write bursts
system.mem_ctrls.perBankWrBursts::9                72                       # Per bank write bursts
system.mem_ctrls.perBankWrBursts::10               11                       # Per bank write bursts
system.mem_ctrls.perBankWrBursts::11                1                       # Per bank write bursts
system.mem_ctrls.perBankWrBursts::12                0                       # Per bank write bursts
system.mem_ctrls.perBankWrBursts::13                0                       # Per bank write bursts
system.mem_ctrls.perBankWrBursts::14                0                       # Per bank write bursts
system.mem_ctrls.perBankWrBursts::15               11                       # Per bank write bursts
system.mem_ctrls.numRdRetry                         0                       # Number of times read queue was full causing retry
system.mem_ctrls.numWrRetry                         0                       # Number of times write queue was full causing retry
system.mem_ctrls.totGap                    5207436000                       # Total gap between requests
system.mem_ctrls.readPktSize::0                     0                       # Read request sizes (log2)
system.mem_ctrls.readPktSize::1                     0                       # Read request sizes (log2)
system.mem_ctrls.readPktSize::2                113180                       # Read request sizes (log2)
system.mem_ctrls.readPktSize::3                 20037                       # Read request sizes (log2)
system.mem_ctrls.readPktSize::4                     0                       # Read request sizes (log2)
system.mem_ctrls.readPktSize::5                     0                       # Read request sizes (log2)
system.mem_ctrls.readPktSize::6                     0                       # Read request sizes (log2)
system.mem_ctrls.writePktSize::0                    0                       # Write request sizes (log2)
system.mem_ctrls.writePktSize::1                    0                       # Write request sizes (log2)
system.mem_ctrls.writePktSize::2                  636                       # Write request sizes (log2)
system.mem_ctrls.writePktSize::3                14592                       # Write request sizes (log2)
system.mem_ctrls.writePktSize::4                    0                       # Write request sizes (log2)
system.mem_ctrls.writePktSize::5                    0                       # Write request sizes (log2)
system.mem_ctrls.writePktSize::6                    0                       # Write request sizes (log2)
system.mem_ctrls.rdQLenPdf::0                  116846                       # What read queue length does an incoming req see
system.mem_ctrls.rdQLenPdf::1                       0                       # What read queue length does an incoming req see
system.mem_ctrls.rdQLenPdf::2                       0                       # What read queue length does an incoming req see
system.mem_ctrls.rdQLenPdf::3                       0                       # What read queue length does an incoming req see
system.mem_ctrls.rdQLenPdf::4                       0                       # What read queue length does an incoming req see
system.mem_ctrls.rdQLenPdf::5                       0                       # What read queue length does an incoming req see
system.mem_ctrls.rdQLenPdf::6                       0                       # What read queue length does an incoming req see
system.mem_ctrls.rdQLenPdf::7                       0                       # What read queue length does an incoming req see
system.mem_ctrls.rdQLenPdf::8                       0                       # What read queue length does an incoming req see
system.mem_ctrls.rdQLenPdf::9                       0                       # What read queue length does an incoming req see
system.mem_ctrls.rdQLenPdf::10                      0                       # What read queue length does an incoming req see
system.mem_ctrls.rdQLenPdf::11                      0                       # What read queue length does an incoming req see
system.mem_ctrls.rdQLenPdf::12                      0                       # What read queue length does an incoming req see
system.mem_ctrls.rdQLenPdf::13                      0                       # What read queue length does an incoming req see
system.mem_ctrls.rdQLenPdf::14                      0                       # What read queue length does an incoming req see
system.mem_ctrls.rdQLenPdf::15                      0                       # What read queue length does an incoming req see
system.mem_ctrls.rdQLenPdf::16                      0                       # What read queue length does an incoming req see
system.mem_ctrls.rdQLenPdf::17                      0                       # What read queue length does an incoming req see
system.mem_ctrls.rdQLenPdf::18                      0                       # What read queue length does an incoming req see
system.mem_ctrls.rdQLenPdf::19                      0                       # What read queue length does an incoming req see
system.mem_ctrls.rdQLenPdf::20                      0                       # What read queue length does an incoming req see
system.mem_ctrls.rdQLenPdf::21                      0                       # What read queue length does an incoming req see
system.mem_ctrls.rdQLenPdf::22                      0                       # What read queue length does an incoming req see
system.mem_ctrls.rdQLenPdf::23                      0                       # What read queue length does an incoming req see
system.mem_ctrls.rdQLenPdf::24                      0                       # What read queue length does an incoming req see
system.mem_ctrls.rdQLenPdf::25                      0                       # What read queue length does an incoming req see
system.mem_ctrls.rdQLenPdf::26                      0                       # What read queue length does an incoming req see
system.mem_ctrls.rdQLenPdf::27                      0                       # What read queue length does an incoming req see
system.mem_ctrls.rdQLenPdf::28                      0                       # What read queue length does an incoming req see
system.mem_ctrls.rdQLenPdf::29                      0                       # What read queue length does an incoming req see
system.mem_ctrls.rdQLenPdf::30                      0                       # What read queue length does an incoming req see
system.mem_ctrls.rdQLenPdf::31                      0                       # What read queue length does an incoming req see
system.mem_ctrls.wrQLenPdf::0                       1                       # What write queue length does an incoming req see
system.mem_ctrls.wrQLenPdf::1                       1                       # What write queue length does an incoming req see
system.mem_ctrls.wrQLenPdf::2                       1                       # What write queue length does an incoming req see
system.mem_ctrls.wrQLenPdf::3                       1                       # What write queue length does an incoming req see
system.mem_ctrls.wrQLenPdf::4                       1                       # What write queue length does an incoming req see
system.mem_ctrls.wrQLenPdf::5                       1                       # What write queue length does an incoming req see
system.mem_ctrls.wrQLenPdf::6                       1                       # What write queue length does an incoming req see
system.mem_ctrls.wrQLenPdf::7                       1                       # What write queue length does an incoming req see
system.mem_ctrls.wrQLenPdf::8                       1                       # What write queue length does an incoming req see
system.mem_ctrls.wrQLenPdf::9                       1                       # What write queue length does an incoming req see
system.mem_ctrls.wrQLenPdf::10                      1                       # What write queue length does an incoming req see
system.mem_ctrls.wrQLenPdf::11                      1                       # What write queue length does an incoming req see
system.mem_ctrls.wrQLenPdf::12                      1                       # What write queue length does an incoming req see
system.mem_ctrls.wrQLenPdf::13                      1                       # What write queue length does an incoming req see
system.mem_ctrls.wrQLenPdf::14                      1                       # What write queue length does an incoming req see
system.mem_ctrls.wrQLenPdf::15                      1                       # What write queue length does an incoming req see
system.mem_ctrls.wrQLenPdf::16                      1                       # What write queue length does an incoming req see
system.mem_ctrls.wrQLenPdf::17                     19                       # What write queue length does an incoming req see
system.mem_ctrls.wrQLenPdf::18                     19                       # What write queue length does an incoming req see
system.mem_ctrls.wrQLenPdf::19                     19                       # What write queue length does an incoming req see
system.mem_ctrls.wrQLenPdf::20                     19                       # What write queue length does an incoming req see
system.mem_ctrls.wrQLenPdf::21                     19                       # What write queue length does an incoming req see
system.mem_ctrls.wrQLenPdf::22                     19                       # What write queue length does an incoming req see
system.mem_ctrls.wrQLenPdf::23                     19                       # What write queue length does an incoming req see
system.mem_ctrls.wrQLenPdf::24                     19                       # What write queue length does an incoming req see
system.mem_ctrls.wrQLenPdf::25                     19                       # What write queue length does an incoming req see
system.mem_ctrls.wrQLenPdf::26                     19                       # What write queue length does an incoming req see
system.mem_ctrls.wrQLenPdf::27                     19                       # What write queue length does an incoming req see
system.mem_ctrls.wrQLenPdf::28                     18                       # What write queue length does an incoming req see
system.mem_ctrls.wrQLenPdf::29                     18                       # What write queue length does an incoming req see
system.mem_ctrls.wrQLenPdf::30                     18                       # What write queue length does an incoming req see
system.mem_ctrls.wrQLenPdf::31                     18                       # What write queue length does an incoming req see
system.mem_ctrls.wrQLenPdf::32                     18                       # What write queue length does an incoming req see
system.mem_ctrls.wrQLenPdf::33                      0                       # What write queue length does an incoming req see
system.mem_ctrls.wrQLenPdf::34                      0                       # What write queue length does an incoming req see
system.mem_ctrls.wrQLenPdf::35                      0                       # What write queue length does an incoming req see
system.mem_ctrls.wrQLenPdf::36                      0                       # What write queue length does an incoming req see
system.mem_ctrls.wrQLenPdf::37                      0                       # What write queue length does an incoming req see
system.mem_ctrls.wrQLenPdf::38                      0                       # What write queue length does an incoming req see
system.mem_ctrls.wrQLenPdf::39                      0                       # What write queue length does an incoming req see
system.mem_ctrls.wrQLenPdf::40                      0                       # What write queue length does an incoming req see
system.mem_ctrls.wrQLenPdf::41                      0                       # What write queue length does an incoming req see
system.mem_ctrls.wrQLenPdf::42                      0                       # What write queue length does an incoming req see
system.mem_ctrls.wrQLenPdf::43                      0                       # What write queue length does an incoming req see
system.mem_ctrls.wrQLenPdf::44                      0                       # What write queue length does an incoming req see
system.mem_ctrls.wrQLenPdf::45                      0                       # What write queue length does an incoming req see
system.mem_ctrls.wrQLenPdf::46                      0                       # What write queue length does an incoming req see
system.mem_ctrls.wrQLenPdf::47                      0                       # What write queue length does an incoming req see
system.mem_ctrls.wrQLenPdf::48                      0                       # What write queue length does an incoming req see
system.mem_ctrls.wrQLenPdf::49                      0                       # What write queue length does an incoming req see
system.mem_ctrls.wrQLenPdf::50                      0                       # What write queue length does an incoming req see
system.mem_ctrls.wrQLenPdf::51                      0                       # What write queue length does an incoming req see
system.mem_ctrls.wrQLenPdf::52                      0                       # What write queue length does an incoming req see
system.mem_ctrls.wrQLenPdf::53                      0                       # What write queue length does an incoming req see
system.mem_ctrls.wrQLenPdf::54                      0                       # What write queue length does an incoming req see
system.mem_ctrls.wrQLenPdf::55                      0                       # What write queue length does an incoming req see
system.mem_ctrls.wrQLenPdf::56                      0                       # What write queue length does an incoming req see
system.mem_ctrls.wrQLenPdf::57                      0                       # What write queue length does an incoming req see
system.mem_ctrls.wrQLenPdf::58                      0                       # What write queue length does an incoming req see
system.mem_ctrls.wrQLenPdf::59                      0                       # What write queue length does an incoming req see
system.mem_ctrls.wrQLenPdf::60                      0                       # What write queue length does an incoming req see
system.mem_ctrls.wrQLenPdf::61                      0                       # What write queue length does an incoming req see
system.mem_ctrls.wrQLenPdf::62                      0                       # What write queue length does an incoming req see
system.mem_ctrls.wrQLenPdf::63                      0                       # What write queue length does an incoming req see
system.mem_ctrls.bytesPerActivate::samples        10840                       # Bytes accessed per row activation
system.mem_ctrls.bytesPerActivate::mean    691.312177                       # Bytes accessed per row activation
system.mem_ctrls.bytesPerActivate::gmean   500.413121                       # Bytes accessed per row activation
system.mem_ctrls.bytesPerActivate::stdev   388.851946                       # Bytes accessed per row activation
system.mem_ctrls.bytesPerActivate::0-127         1312     12.10%     12.10% # Bytes accessed per row activation
system.mem_ctrls.bytesPerActivate::128-255         1137     10.49%     22.59% # Bytes accessed per row activation
system.mem_ctrls.bytesPerActivate::256-383          715      6.60%     29.19% # Bytes accessed per row activation
system.mem_ctrls.bytesPerActivate::384-511          575      5.30%     34.49% # Bytes accessed per row activation
system.mem_ctrls.bytesPerActivate::512-639          543      5.01%     39.50% # Bytes accessed per row activation
system.mem_ctrls.bytesPerActivate::640-767          412      3.80%     43.30% # Bytes accessed per row activation
system.mem_ctrls.bytesPerActivate::768-895          306      2.82%     46.13% # Bytes accessed per row activation
system.mem_ctrls.bytesPerActivate::896-1023          276      2.55%     48.67% # Bytes accessed per row activation
system.mem_ctrls.bytesPerActivate::1024-1151         5564     51.33%    100.00% # Bytes accessed per row activation
system.mem_ctrls.bytesPerActivate::total        10840                       # Bytes accessed per row activation
system.mem_ctrls.rdPerTurnAround::samples           18                       # Reads before turning the bus around for writes
system.mem_ctrls.rdPerTurnAround::mean    6463.555556                       # Reads before turning the bus around for writes
system.mem_ctrls.rdPerTurnAround::gmean    499.468655                       # Reads before turning the bus around for writes
system.mem_ctrls.rdPerTurnAround::stdev  23960.192146                       # Reads before turning the bus around for writes
system.mem_ctrls.rdPerTurnAround::0-4095           16     88.89%     88.89% # Reads before turning the bus around for writes
system.mem_ctrls.rdPerTurnAround::4096-8191            1      5.56%     94.44% # Reads before turning the bus around for writes
system.mem_ctrls.rdPerTurnAround::98304-102399            1      5.56%    100.00% # Reads before turning the bus around for writes
system.mem_ctrls.rdPerTurnAround::total            18                       # Reads before turning the bus around for writes
system.mem_ctrls.wrPerTurnAround::samples           18                       # Writes before turning the bus around for reads
system.mem_ctrls.wrPerTurnAround::mean             16                       # Writes before turning the bus around for reads
system.mem_ctrls.wrPerTurnAround::gmean     16.000000                       # Writes before turning the bus around for reads
system.mem_ctrls.wrPerTurnAround::16               18    100.00%    100.00% # Writes before turning the bus around for reads
system.mem_ctrls.wrPerTurnAround::total            18                       # Writes before turning the bus around for reads
system.mem_ctrls.totQLat                    336859000                       # Total ticks spent queuing
system.mem_ctrls.totMemAccLat              2527721500                       # Total ticks spent from burst creation until serviced by the DRAM
system.mem_ctrls.totBusLat                  584230000                       # Total ticks spent in databus transfers
system.mem_ctrls.avgQLat                      2882.93                       # Average queueing delay per DRAM burst
system.mem_ctrls.avgBusLat                    5000.00                       # Average bus latency per DRAM burst
system.mem_ctrls.avgMemAccLat                21632.93                       # Average memory access latency per DRAM burst
system.mem_ctrls.avgRdBW                      1436.03                       # Average DRAM read bandwidth in MiByte/s
system.mem_ctrls.avgWrBW                         3.54                       # Average achieved write bandwidth in MiByte/s
system.mem_ctrls.avgRdBWSys                    117.72                       # Average system read bandwidth in MiByte/s
system.mem_ctrls.avgWrBWSys                     22.91                       # Average system write bandwidth in MiByte/s
system.mem_ctrls.peakBW                      12800.00                       # Theoretical peak bandwidth in MiByte/s
system.mem_ctrls.busUtil                        11.25                       # Data bus utilization in percentage
system.mem_ctrls.busUtilRead                    11.22                       # Data bus utilization in percentage for reads
system.mem_ctrls.busUtilWrite                    0.03                       # Data bus utilization in percentage for writes
system.mem_ctrls.avgRdQLen                       1.00                       # Average read queue length when enqueuing
system.mem_ctrls.avgWrQLen                      29.95                       # Average write queue length when enqueuing
system.mem_ctrls.readRowHits                   106021                       # Number of row buffer hits during reads
system.mem_ctrls.writeRowHits                     266                       # Number of row buffer hits during writes
system.mem_ctrls.readRowHitRate                 90.74                       # Row buffer hit rate for reads
system.mem_ctrls.writeRowHitRate                84.18                       # Row buffer hit rate for writes
system.mem_ctrls.avgGap                      35079.90                       # Average gap between requests
system.mem_ctrls.pageHitRate                    90.72                       # Row buffer hit rate, read and write combined
system.mem_ctrls.memoryStateTime::IDLE       10077750                       # Time in different power states
system.mem_ctrls.memoryStateTime::REF       173680000                       # Time in different power states
system.mem_ctrls.memoryStateTime::PRE_PDN            0                       # Time in different power states
system.mem_ctrls.memoryStateTime::ACT      5017737000                       # Time in different power states
system.mem_ctrls.memoryStateTime::ACT_PDN            0                       # Time in different power states
system.membus.throughput                    140622496                       # Throughput (bytes/s)
system.membus.trans_dist::ReadReq              133217                       # Transaction distribution
system.membus.trans_dist::ReadResp             133216                       # Transaction distribution
system.membus.trans_dist::WriteReq              15228                       # Transaction distribution
system.membus.trans_dist::WriteResp             15228                       # Transaction distribution
system.membus.pkt_count_system.cpu.icache_port::system.mem_ctrls.port       216591                       # Packet count per connected master and slave (bytes)
system.membus.pkt_count_system.cpu.dcache_port::system.mem_ctrls.port        80298                       # Packet count per connected master and slave (bytes)
system.membus.pkt_count::total                 296889                       # Packet count per connected master and slave (bytes)
system.membus.tot_pkt_size_system.cpu.icache_port::system.mem_ctrls.port       433180                       # Cumulative packet size per connected master and slave (bytes)
system.membus.tot_pkt_size_system.cpu.dcache_port::system.mem_ctrls.port       299112                       # Cumulative packet size per connected master and slave (bytes)
system.membus.tot_pkt_size::total              732292                       # Cumulative packet size per connected master and slave (bytes)
system.membus.data_through_bus                 732292                       # Total data (bytes)
system.membus.snoop_data_through_bus                0                       # Total snoop data (bytes)
system.membus.reqLayer0.occupancy           201035000                       # Layer occupancy (ticks)
system.membus.reqLayer0.utilization               3.9                       # Layer utilization (%)
system.membus.respLayer1.occupancy          269116500                       # Layer occupancy (ticks)
system.membus.respLayer1.utilization              5.2                       # Layer utilization (%)
system.membus.respLayer2.occupancy           76815250                       # Layer occupancy (ticks)
system.membus.respLayer2.utilization              1.5                       # Layer utilization (%)
system.cpu_voltage_domain.voltage                   1                       # Voltage in Volts
system.cpu_clk_domain.clock                       500                       # Clock period in ticks
system.cpu.dtb.fetch_hits                           0                       # ITB hits
system.cpu.dtb.fetch_misses                         0                       # ITB misses
system.cpu.dtb.fetch_acv                            0                       # ITB acv
system.cpu.dtb.fetch_accesses                       0                       # ITB accesses
system.cpu.dtb.read_hits                        24921                       # DTB read hits
system.cpu.dtb.read_misses                         10                       # DTB read misses
system.cpu.dtb.read_acv                             0                       # DTB read access violations
system.cpu.dtb.read_accesses                    24931                       # DTB read accesses
system.cpu.dtb.write_hits                       15228                       # DTB write hits
system.cpu.dtb.write_misses                         2                       # DTB write misses
system.cpu.dtb.write_acv                            0                       # DTB write access violations
system.cpu.dtb.write_accesses                   15230                       # DTB write accesses
system.cpu.dtb.data_hits                        40149                       # DTB hits
system.cpu.dtb.data_misses                         12                       # DTB misses
system.cpu.dtb.data_acv                             0                       # DTB access violations
system.cpu.dtb.data_accesses                    40161                       # DTB accesses
system.cpu.itb.fetch_hits                      108296                       # ITB hits
system.cpu.itb.fetch_misses                        19                       # ITB misses
system.cpu.itb.fetch_acv                            0                       # ITB acv
system.cpu.itb.fetch_accesses                  108315                       # ITB accesses
system.cpu.itb.read_hits                            0                       # DTB read hits
system.cpu.itb.read_misses                          0                       # DTB read misses
system.cpu.itb.read_acv                             0                       # DTB read access violations
system.cpu.itb.read_accesses                        0                       # DTB read accesses
system.cpu.itb.write_hits                           0                       # DTB write hits
system.cpu.itb.write_misses                         0                       # DTB write misses
system.cpu.itb.write_acv                            0                       # DTB write access violations
system.cpu.itb.write_accesses                       0                       # DTB write accesses
system.cpu.itb.data_hits                            0                       # DTB hits
system.cpu.itb.data_misses                          0                       # DTB misses
system.cpu.itb.data_acv                             0                       # DTB access violations
system.cpu.itb.data_accesses                        0                       # DTB accesses
system.cpu.workload.num_syscalls                  109                       # Number of system calls
system.cpu.numCycles                         10415005                       # number of cpu cycles simulated
system.cpu.numWorkItemsStarted                      0                       # number of work items this cpu started
system.cpu.numWorkItemsCompleted                    0                       # number of work items this cpu completed
system.cpu.committedInsts                      108283                       # Number of instructions committed
system.cpu.committedOps                        108283                       # Number of ops (including micro ops) committed
system.cpu.num_int_alu_accesses                107099                       # Number of integer alu accesses
system.cpu.num_fp_alu_accesses                    907                       # Number of float alu accesses
system.cpu.num_func_calls                        3579                       # number of times a function call or return occured
system.cpu.num_conditional_control_insts        11616                       # number of instructions that are conditional controls
system.cpu.num_int_insts                       107099                       # number of integer instructions
system.cpu.num_fp_insts                           907                       # number of float instructions
system.cpu.num_int_register_reads              149537                       # number of times the integer registers were read
system.cpu.num_int_register_writes              78346                       # number of times the integer registers were written
system.cpu.num_fp_register_reads                  905                       # number of times the floating registers were read
system.cpu.num_fp_register_writes                   2                       # number of times the floating registers were written
system.cpu.num_mem_refs                         40161                       # number of memory refs
system.cpu.num_load_insts                       24931                       # Number of load instructions
system.cpu.num_store_insts                      15230                       # Number of store instructions
system.cpu.num_idle_cycles                          0                       # Number of idle cycles
system.cpu.num_busy_cycles                   10415005                       # Number of busy cycles
system.cpu.not_idle_fraction                        1                       # Percentage of non-idle cycles
system.cpu.idle_fraction                            0                       # Percentage of idle cycles
system.cpu.Branches                             16142                       # Number of branches fetched
system.cpu.op_class::No_OpClass                   251      0.23%      0.23% # Class of executed instruction
system.cpu.op_class::IntAlu                     66494     61.40%     61.63% # Class of executed instruction
system.cpu.op_class::IntMult                     1387      1.28%     62.91% # Class of executed instruction
system.cpu.op_class::IntDiv                         0      0.00%     62.91% # Class of executed instruction
system.cpu.op_class::FloatAdd                       2      0.00%     62.92% # Class of executed instruction
system.cpu.op_class::FloatCmp                       0      0.00%     62.92% # Class of executed instruction
system.cpu.op_class::FloatCvt                       0      0.00%     62.92% # Class of executed instruction
system.cpu.op_class::FloatMult                      0      0.00%     62.92% # Class of executed instruction
system.cpu.op_class::FloatDiv                       0      0.00%     62.92% # Class of executed instruction
system.cpu.op_class::FloatSqrt                      0      0.00%     62.92% # Class of executed instruction
system.cpu.op_class::SimdAdd                        0      0.00%     62.92% # Class of executed instruction
system.cpu.op_class::SimdAddAcc                     0      0.00%     62.92% # Class of executed instruction
system.cpu.op_class::SimdAlu                        0      0.00%     62.92% # Class of executed instruction
system.cpu.op_class::SimdCmp                        0      0.00%     62.92% # Class of executed instruction
system.cpu.op_class::SimdCvt                        0      0.00%     62.92% # Class of executed instruction
system.cpu.op_class::SimdMisc                       0      0.00%     62.92% # Class of executed instruction
system.cpu.op_class::SimdMult                       0      0.00%     62.92% # Class of executed instruction
system.cpu.op_class::SimdMultAcc                    0      0.00%     62.92% # Class of executed instruction
system.cpu.op_class::SimdShift                      0      0.00%     62.92% # Class of executed instruction
system.cpu.op_class::SimdShiftAcc                   0      0.00%     62.92% # Class of executed instruction
system.cpu.op_class::SimdSqrt                       0      0.00%     62.92% # Class of executed instruction
system.cpu.op_class::SimdFloatAdd                   0      0.00%     62.92% # Class of executed instruction
system.cpu.op_class::SimdFloatAlu                   0      0.00%     62.92% # Class of executed instruction
system.cpu.op_class::SimdFloatCmp                   0      0.00%     62.92% # Class of executed instruction
system.cpu.op_class::SimdFloatCvt                   0      0.00%     62.92% # Class of executed instruction
system.cpu.op_class::SimdFloatDiv                   0      0.00%     62.92% # Class of executed instruction
system.cpu.op_class::SimdFloatMisc                  0      0.00%     62.92% # Class of executed instruction
system.cpu.op_class::SimdFloatMult                  0      0.00%     62.92% # Class of executed instruction
system.cpu.op_class::SimdFloatMultAcc               0      0.00%     62.92% # Class of executed instruction
system.cpu.op_class::SimdFloatSqrt                  0      0.00%     62.92% # Class of executed instruction
system.cpu.op_class::MemRead                    24931     23.02%     85.94% # Class of executed instruction
system.cpu.op_class::MemWrite                   15230     14.06%    100.00% # Class of executed instruction
system.cpu.op_class::IprAccess                      0      0.00%    100.00% # Class of executed instruction
system.cpu.op_class::InstPrefetch                   0      0.00%    100.00% # Class of executed instruction
system.cpu.op_class::total                     108295                       # Class of executed instruction

---------- End Simulation Statistics   ----------
